Circuit: * C:\TIM\Project\monochr\doc\LTspice\trigger.asc

Instance "m:dd6:6": Length shorter than recommended for a level 2 MOSFET.
Instance "m:dd6:5": Length shorter than recommended for a level 2 MOSFET.
Instance "m:dd6:4": Length shorter than recommended for a level 2 MOSFET.
Instance "m:dd6:3": Length shorter than recommended for a level 2 MOSFET.
Instance "m:dd6:2": Length shorter than recommended for a level 2 MOSFET.
Instance "m:dd6:1": Length shorter than recommended for a level 2 MOSFET.
Direct Newton iteration for .op point succeeded.

Date: Wed Sep 02 12:55:28 2020
Total elapsed time: 0.063 seconds.

tnom = 27
temp = 27
method = modified trap
totiter = 2851
traniter = 2820
tranpoints = 1289
accept = 1208
rejected = 81
matrix size = 46
fillins = 11
solver = Normal
Matrix Compiler1: 2.80 KB object code size  0.6/0.3/[0.1]
Matrix Compiler2: 4.16 KB object code size  0.3/0.5/[0.3]

