Circuit: * C:\Users\HP\Documents\source\monochr\doc\LTspice\trigger.asc

Instance "m:dd6:6": Length shorter than recommended for a level 2 MOSFET.
Instance "m:dd6:5": Length shorter than recommended for a level 2 MOSFET.
Instance "m:dd6:4": Length shorter than recommended for a level 2 MOSFET.
Instance "m:dd6:3": Length shorter than recommended for a level 2 MOSFET.
Instance "m:dd6:2": Length shorter than recommended for a level 2 MOSFET.
Instance "m:dd6:1": Length shorter than recommended for a level 2 MOSFET.
Direct Newton iteration for .op point succeeded.

Date: Mon Aug 24 15:25:42 2020
Total elapsed time: 0.075 seconds.

tnom = 27
temp = 27
method = modified trap
totiter = 2855
traniter = 2808
tranpoints = 1284
accept = 1200
rejected = 84
matrix size = 45
fillins = 9
solver = Normal
Matrix Compiler1: 2.70 KB object code size  0.5/0.3/[0.2]
Matrix Compiler2: 4.05 KB object code size  0.3/0.7/[0.3]

