Circuit: * C:\Users\HP\Documents\source\monochr\doc\LTspice\Vout\Vout.asc

Instance "m:dd1:6": Length shorter than recommended for a level 2 MOSFET.
Instance "m:dd1:5": Length shorter than recommended for a level 2 MOSFET.
Instance "m:dd1:4": Length shorter than recommended for a level 2 MOSFET.
Instance "m:dd1:3": Length shorter than recommended for a level 2 MOSFET.
Instance "m:dd1:2": Length shorter than recommended for a level 2 MOSFET.
Instance "m:dd1:1": Length shorter than recommended for a level 2 MOSFET.
Instance "m:dd6:6": Length shorter than recommended for a level 2 MOSFET.
Instance "m:dd6:5": Length shorter than recommended for a level 2 MOSFET.
Instance "m:dd6:4": Length shorter than recommended for a level 2 MOSFET.
Instance "m:dd6:3": Length shorter than recommended for a level 2 MOSFET.
Instance "m:dd6:2": Length shorter than recommended for a level 2 MOSFET.
Instance "m:dd6:1": Length shorter than recommended for a level 2 MOSFET.
Direct Newton iteration failed to find .op point.  (Use ".option noopiter" to skip.)
Starting Gmin stepping
Gmin = 10
Gmin = 1.07374
Gmin = 0.115292
Gmin = 0.0123794
Gmin = 0.00132923
Gmin = 0.000142725
Gmin = 1.5325e-005
vernier = 0.5
vernier = 0.25
vernier = 0.125
vernier = 0.0625
Gmin = 9.23103e-006
vernier = 0.03125
vernier = 0.015625
vernier = 0.0208333
Gmin = 8.91284e-006
vernier = 0.0277778
vernier = 0.037037
Gmin = 8.34089e-006
vernier = 0.0493827
Gmin = 7.49125e-006
vernier = 0.0658435
vernier = 0.0877914
Gmin = 6.2863e-006
vernier = 0.117055
vernier = 0.156073
Gmin = 4.76788e-006
vernier = 0.208098
Gmin = 3.05549e-006
vernier = 0.277464
vernier = 0.369952
Gmin = 1.48952e-006
vernier = 0.493269
vernier = 0.657691
Gmin = 4.88283e-007
vernier = 0.876922
Gmin = 8.46621e-008
vernier = 1
Gmin = 9.31994e-009
Gmin = 1.00072e-009
Gmin = 1.07452e-010
Gmin = 1.15375e-011
Gmin = 1.23883e-012
Gmin = 1.33019e-013
Gmin = 0
Gmin stepping succeeded in finding the operating point.


Date: Tue Mar 16 17:24:11 2021
Total elapsed time: 0.788 seconds.

tnom = 27
temp = 27
method = modified trap
totiter = 51966
traniter = 50600
tranpoints = 15164
accept = 10478
rejected = 4686
matrix size = 91
fillins = 73
solver = Normal
Matrix Compiler1: 9.63 KB object code size  1.6/1.2/[0.5]
Matrix Compiler2: 9.11 KB object code size  0.9/1.3/[0.6]

